/*--------------------------------*- C++ -*----------------------------------*\
| =========                 |                                                 |
| \\      /  F ield         | OpenFOAM: The Open Source CFD Toolbox           |
|  \\    /   O peration     | Version:  2406                                  |
|   \\  /    A nd           | Website:  www.openfoam.com                      |
|    \\/     M anipulation  |                                                 |
\*---------------------------------------------------------------------------*/
FoamFile
{
    version     2.0;
    format      ascii;
    arch        "LSB;label=32;scalar=64";
    class       dictionary;
    location    "system";
    object      surfaceFeatureExtractDict;
}
// * * * * * * * * * * * * * * * * * * * * * * * * * * * * * * * * * * * * * //
/*surfaceFeatureExtractDict
{
    blade.stl
    {
        extractionMethod    extractFromSurface;
        extractFromSurfaceCoeffs
        {
            includedAngle   150;
            writeObj        no;
        }
    }
}
*/
surfaceFeatureExtractDict
{
    extractionMethod    extractFromSurface;

    extractFromSurfaceCoeffs
    {
        includedAngle   150;
        writeObj        no;
    }

    surfaces
    (
        blade.stl
    );
}

// ********************************************************
